      24
 i =      185, E =      -144.2683410838
  O         2.4743860883        0.0003143335       -2.4637677877
  O         3.4417739531        0.0004519762        0.0941891309
  S         2.1297491094        0.0003390551       -0.8721092609
  H        -0.2694179377       -1.1897992175       -2.2698938815
  H        -0.2696698609        1.1897779440       -2.2699048007
  H        -4.6334594641       -0.8911274171       -0.4423873724
  H        -3.9951043969       -0.0007228776        0.9614530462
  H        -4.6335182054        0.8902400083       -0.4419923766
 Cl         0.1824334009        1.6338483174        2.4468913694
 Cl         0.1829019278       -1.6338440146        2.4468683087
 Cl         0.9076928294       -2.9334382581       -0.3277496614
 Cl         0.9069664967        2.9336323884       -0.3276693520
  C         0.3139727792        0.6914901682        1.0685175320
  C         0.3141038924       -0.6915492948        1.0685798581
  C         0.4788597936       -1.2855557683       -0.2277056319
  C        -0.5080068389       -0.7785561588       -1.2625821608
  C        -0.5081435761        0.7784380421       -1.2625722218
  C         0.4785200695        1.2856927413       -0.2277124206
  N        -2.7598227262       -0.0002978411       -0.7916071193
  C        -1.9422130668        1.1883320360       -0.8842912505
  O        -2.3694313926        2.3039422200       -0.7085789019
  C        -1.9419470549       -1.1887986719       -0.8842796264
  O        -2.3688645874       -2.3044638477       -0.7085612458
  C        -4.0703222323       -0.0004898629       -0.1357381734
