      24
 i =       34, E =      -198.1346824677
  O        -1.2476514916        0.5834779538       -0.0060145319
  O        -3.7279781927        0.9729650118        0.2870436324
  S        -2.5594832299        0.1167532799        0.4244600955
  H         1.3253885892        1.9975131953        0.5120270107
  H         0.7579851704        1.0853956439       -1.9893880613
  H         6.0277590537        1.8879287869       -0.9864713669
  H         5.6730318815        1.3179986226       -2.6770853345
  H         5.4719635401        3.0448213921       -2.2416576190
 Cl        -3.2398252452       -4.0783092002        0.4732699795
 Cl        -2.6467443630       -2.8894703961        3.4287233171
 Cl        -2.1165010794        0.4535728907        3.3866746024
 Cl        -3.1596424281       -1.6772037625       -1.9158728211
  C        -2.9292977041       -2.4344637930        0.7166647711
  C        -2.6679823342       -1.8908074497        2.0643915215
  C        -2.4528099501       -0.5523895064        2.0900917103
  C         2.0086554389        1.8187236996       -0.3243021030
  C         1.7272050581        1.3662596265       -1.5622838396
  C        -2.9012156637       -1.5042161711       -0.2688923818
  N         4.0115385509        1.7406330292       -1.4868183269
  C         3.0008466126        1.3140834056       -2.3443616698
  O         3.1622079782        0.9770014364       -3.5105213582
  C         3.4787048110        2.0853401200       -0.2453302674
  O         4.1313460782        2.5294954315        0.6912010145
  C         5.3733440273        2.0078311961       -1.8691785566
